 ****** HSPICE -- G-2012.06-ENG1 32-BIT (Jun 28 2012) RHEL32 ******             
  Copyright (C) 2012 Synopsys, Inc. All Rights Reserved.                        
  Unpublished-rights reserved under US copyright laws.
  This program is protected by law and is subject to the
  terms and conditions of the license agreement from Synopsys.
  Use of this program is your acceptance to be bound by the
  license agreement. HSPICE is the trademark of Synopsys, Inc.
  Input File: /users/jpduarte/research/variabilityproject/netlist_modelcards/idv
  Command line options: /users/jpduarte/research/variabilityproject/netlist_modelcards/idvgscaling/idvgaux.sp -o /users/jpduarte/research/variabilityproject/netlist_modelcards/idvgscaling/idvgaux
 lic:  
 lic: FLEXlm: v10.8 
 lic: USER:   jpduarte             HOSTNAME: bwrcrdsl-1.EECS.Berkeley.EDU 
 lic: HOSTID:                      PID:      13440 
 lic: Using FLEXlm license file: 
 lic: 1701@sunv40z-1.eecs.berkeley.edu 
 lic: Checkout 1 hspice 
 lic: License/Maintenance for hspice will expire on 19-dec-2015/2014.09 
 lic: 2(in_use)/50(total) FLOATING license(s) on SERVER sunv40z-1.eecs.berkeley.
 lic:   
 Init: read install configuration file: /tools/synopsys/hspice/G-2012.06-ENG1/hspice/meta.cfg
 Loading pVA library /users/jpduarte/research/variabilityproject/netlist_modelcards/idvgscaling/idvgaux.pvadir/pvaRTL_linux.so...
1****** HSPICE -- G-2012.06-ENG1 32-BIT (Jun 28 2012) RHEL32 ******             
 ******  
 *sample netlist for bsim-mg

  ******  circuit name directory
 circuit number to circuit name directory
   number circuitname                     definition         multiplier
        0 main circuit
        1 x1.                             bsimcmg(va)        1.00 
 **info** *pvaI* Creating Verilog-A module 'bsimcmg' for X1

  
      
 *****************************************************************
 ******  option summary
 ******
 runlvl  = 3         bypass  = 2         
  Opening plot unit= 15
 file=/users/jpduarte/research/variabilityproject/netlist_modelcards/idvgscaling/idvgaux.pa0

 ******  
 *sample netlist for bsim-mg

  ******  dc transfer curves tnom=  25.000 temp=  25.000 *****

   *** source        0:vds =  5.000e-02       ***

x

        volt    current    
                   x1.d    
    0.          1.286e-11  
  1.7551e-02    2.391e-11  
  3.5102e-02    4.444e-11  
  5.2653e-02    8.264e-11  
  7.0204e-02    1.536e-10  
  8.7755e-02    2.854e-10  
    0.10531     5.300e-10  
    0.12286     9.831e-10  
    0.14041     1.819e-09  
    0.15796     3.353e-09  
    0.17551     6.137e-09  
    0.19306     1.110e-08  
    0.21061     1.967e-08  
    0.22816     3.386e-08  
    0.24571     5.604e-08  
    0.26327     8.845e-08  
    0.28082     1.327e-07  
    0.29837     1.893e-07  
    0.31592     2.581e-07  
    0.33347     3.379e-07  
    0.35102     4.275e-07  
    0.36857     5.256e-07  
    0.38612     6.308e-07  
    0.40367     7.420e-07  
    0.42122     8.584e-07  
    0.43878     9.790e-07  
    0.45633     1.103e-06  
    0.47388     1.231e-06  
    0.49143     1.361e-06  
    0.50898     1.494e-06  
    0.52653     1.629e-06  
    0.54408     1.765e-06  
    0.56163     1.904e-06  
    0.57918     2.043e-06  
    0.59673     2.184e-06  
    0.61429     2.327e-06  
    0.63184     2.470e-06  
    0.64939     2.614e-06  
    0.66694     2.759e-06  
    0.68449     2.905e-06  
    0.70204     3.051e-06  
    0.71959     3.198e-06  
    0.73714     3.346e-06  
    0.75469     3.494e-06  
    0.77224     3.643e-06  
    0.78980     3.792e-06  
    0.80735     3.941e-06  
    0.82490     4.091e-06  
    0.84245     4.241e-06  
    0.86000     4.392e-06  
y
-----------------------------------------------
 ******  
 *sample netlist for bsim-mg

  ******  dc transfer curves tnom=  25.000 temp=  25.000 *****

   *** source        0:vds =    0.8600        ***

x

        volt    current    
                   x1.d    
    0.          1.501e-11  
  1.7551e-02    2.774e-11  
  3.5102e-02    5.173e-11  
  5.2653e-02    9.652e-11  
  7.0204e-02    1.793e-10  
  8.7755e-02    3.333e-10  
    0.10531     6.189e-10  
    0.12286     1.149e-09  
    0.14041     2.128e-09  
    0.15796     3.929e-09  
    0.17551     7.213e-09  
    0.19306     1.311e-08  
    0.21061     2.346e-08  
    0.22816     4.096e-08  
    0.24571     6.923e-08  
    0.26327     1.125e-07  
    0.28082     1.751e-07  
    0.29837     2.612e-07  
    0.31592     3.742e-07  
    0.33347     5.172e-07  
    0.35102     6.925e-07  
    0.36857     9.018e-07  
    0.38612     1.146e-06  
    0.40367     1.427e-06  
    0.42122     1.744e-06  
    0.43878     2.099e-06  
    0.45633     2.489e-06  
    0.47388     2.917e-06  
    0.49143     3.380e-06  
    0.50898     3.879e-06  
    0.52653     4.413e-06  
    0.54408     4.981e-06  
    0.56163     5.582e-06  
    0.57918     6.215e-06  
    0.59673     6.879e-06  
    0.61429     7.573e-06  
    0.63184     8.297e-06  
    0.64939     9.049e-06  
    0.66694     9.828e-06  
    0.68449     1.063e-05  
    0.70204     1.146e-05  
    0.71959     1.232e-05  
    0.73714     1.320e-05  
    0.75469     1.410e-05  
    0.77224     1.502e-05  
    0.78980     1.596e-05  
    0.80735     1.692e-05  
    0.82490     1.790e-05  
    0.84245     1.890e-05  
    0.86000     1.992e-05  
y
-----------------------------------------------

          ***** job concluded
1****** HSPICE -- G-2012.06-ENG1 32-BIT (Jun 28 2012) RHEL32 ******             
 ******  
 *sample netlist for bsim-mg

  ******  job statistics summary tnom=  25.000 temp=  25.000 *****
  
  
 ******  Machine Information  ******
 CPU:
 model name	: Intel(R) Xeon(R) CPU           E5645  @ 2.40GHz
 cpu MHz	: 1596.000
  
 OS:
 Linux version 2.6.32-431.17.1.el6.x86_64 (mockbuild@x86-027.build.eng.bos.redhat.com) (gcc version 4.4.7 20120313 (Red Hat 4.4.7-4) (GCC) ) #1 SMP Fri Apr 11 17:27:00 EDT 2014


  ******  HSPICE Threads Information  ******

  Command Line Threads Count :     1
  Available CPU Count        :    24
  Actual Threads Count       :     1


  ******  Circuit Statistics  ******
  # nodes       =      10 # elements   =       5
  # resistors   =       0 # capacitors =       0 # inductors   =       0
  # mutual_inds =       0 # vccs       =       0 # vcvs        =       0
  # cccs        =       0 # ccvs       =       0 # volt_srcs   =       4
  # curr_srcs   =       0 # diodes     =       0 # bjts        =       0
  # jfets       =       0 # mosfets    =       0 # U elements  =       0
  # T elements  =       0 # W elements =       0 # B elements  =       0
  # S elements  =       0 # P elements =       0 # va device   =       1
  # vector_srcs =       0 # N elements =       0


  ******  Runtime Statistics (seconds)  ******

  analysis           time    # points   tot. iter  conv.iter
  op point           0.00           1           0
  dc sweep           0.02         100         204
  readin             0.06
  errchk             0.09
  setup              0.00
  output             0.00


           peak memory used        112.84 megabytes
           total cpu time            0.18 seconds
           total elapsed time        0.58 seconds
           job started at     19:01:50 01/11/2015
           job ended   at     19:01:51 01/11/2015


 lic: Release hspice token(s) 
 lic: total license checkout elapse time:        0.26(s)
