Using: /tools/synopsys/hspice/G-2012.06/hspice/linux/hspice idvgnmos.sp
 ****** HSPICE -- G-2012.06 32-BIT (May 27 2012) RHEL32 ******                  
  Copyright (C) 2012 Synopsys, Inc. All Rights Reserved.                        
  Unpublished-rights reserved under US copyright laws.
  This program is protected by law and is subject to the
  terms and conditions of the license agreement from Synopsys.
  Use of this program is your acceptance to be bound by the
  license agreement. HSPICE is the trademark of Synopsys, Inc.
  Input File: idvgnmos.sp                                                       
  Command line options: idvgnmos.sp
 lic:  
 lic: FLEXlm: v10.8 
 lic: USER:   sourabh              HOSTNAME: bwrcr720-1.eecs.berkeley.edu 
 lic: HOSTID:                      PID:      26374 
 lic: Using FLEXlm license file: 
 lic: 1701@sunv40z-1.eecs.berkeley.edu 
 lic: Checkout 1 hspice 
 lic: License/Maintenance for hspice will expire on 19-dec-2015/2014.09 
 lic: 1(in_use)/50(total) FLOATING license(s) on SERVER sunv40z-1.eecs.berkeley.
 lic:   
 Init: read install configuration file: /tools/synopsys/hspice/G-2012.06/hspice/meta.cfg


 --------------------------------------------------------
|                                                        |
|          Synopsys Unified Verilog-A (pVA v2.0)         |
|                                                        |
|       Machine Name: bwrcr720-1.eecs.berkeley.edu       |
| Copyright (c) 2011 Synopsys Inc., All Rights Reserved. |
|                                                        |
 --------------------------------------------------------

libepva built by pvamgr synmake_pva_build  on Tue May  1 20:03:16 PDT 2012
HSP_HOME:   /tools/synopsys/hspice/G-2012.06/hspice
HSP_ARCH:   linux
HSP_GCC :   /tools/synopsys/hspice/G-2012.06/hspice/GNU/amd64/gcc-4.5.2-static/bin/gcc -m32 
HSP_GCC_VER:   4.5.2
Working-Dir: /users/sourabh/sourabh/Variability/netlist_modelcards
Args:        -p hsp -t spi -f idvgnmos.pvadir/pvaHDL.lis -o idvgnmos.pvadir 


Begin of pVA compiling on Mon Nov 24 13:21:43 2014

Parsing './../model_code/code_109beta/bsimcmg.va'
Parsing include file '././/../model_code/code_109beta/bsimcmg_main.va'
Parsing include file '/tools/synopsys/hspice/G-2012.06/hspice/include/constants.vams'
Parsing include file '/tools/synopsys/hspice/G-2012.06/hspice/include/disciplines.vams'
Parsing include file '././/../model_code/code_109beta/common_defs.include'
Parsing include file '././/../model_code/code_109beta/bsimcmg_cfringe.include'
Parsing include file '././/../model_code/code_109beta/bsimcmg_body.include'
Parsing include file '././/../model_code/code_109beta/bsimcmg_binning_parameters.include'
Parsing include file '././/../model_code/code_109beta/bsimcmg_rdsmod.include'
Parsing include file '././/../model_code/code_109beta/bsimcmg_quasi_static_cv.include'

End of pVA compiling on Mon Nov 24 13:21:43 2014


End of build pVA DB on Mon Nov 24 13:21:43 2014


idvgnmos.pvadir/pvaRTL_linux.so is reused

End of pVA elaboration on Mon Nov 24 13:21:43 2014

 **warning** Unrecognized output type max      on line above;ignored.

 Loading pVA library idvgnmos.pvadir/pvaRTL_linux.so...
1****** HSPICE -- G-2012.06 32-BIT (May 27 2012) RHEL32 ******                  
 ******  
 *sample netlist for bsim-mg

  ******  circuit name directory
 circuit number to circuit name directory
   number circuitname                     definition         multiplier
        0 main circuit
        1 x1.                             bsimcmg(va)        1.00 
        2 x2.                             bsimcmg(va)        1.00 
*pvaI* Creating Verilog-A module 'bsimcmg' for X2
  
      
 *****************************************************************
 ******  option summary
 ******
 runlvl  = 3         bypass  = 2         
  Opening plot unit= 15
 file=idvgnmos.pa0                                                             

*pvaI* Creating Verilog-A module 'bsimcmg' for X1
 ******  
 *sample netlist for bsim-mg

  ******  dc transfer curves tnom=  25.000 temp=  27.000 *****

   *** monte carlo  index =            1 ***

       MONTE CARLO PARAMETER DEFINITIONS

 tox_mc                          
     1:eot           =  8.3669E-10  2:eot           =  7.1526E-10

x

        volt    current    
                   x1.d    
   -0.50000       0.       
   -0.49000       0.       
   -0.48000       0.       
   -0.47000       0.       
   -0.46000     7.105e-15  
   -0.45000     7.105e-15  
   -0.44000     7.105e-15  
   -0.43000     7.105e-15  
   -0.42000     7.105e-15  
   -0.41000     1.421e-14  
   -0.40000     2.132e-14  
   -0.39000     2.842e-14  
   -0.38000     3.553e-14  
   -0.37000     4.974e-14  
   -0.36000     6.395e-14  
   -0.35000     8.527e-14  
   -0.34000     1.208e-13  
   -0.33000     1.634e-13  
   -0.32000     2.132e-13  
   -0.31000     2.842e-13  
   -0.30000     3.837e-13  
   -0.29000     5.116e-13  
   -0.28000     6.821e-13  
   -0.27000     9.166e-13  
   -0.26000     1.229e-12  
   -0.25000     1.656e-12  
   -0.24000     2.231e-12  
   -0.23000     2.998e-12  
   -0.22000     4.022e-12  
   -0.21000     5.407e-12  
   -0.20000     7.269e-12  
   -0.19000     9.777e-12  
   -0.18000     1.315e-11  
   -0.17000     1.767e-11  
   -0.16000     2.376e-11  
   -0.15000     3.195e-11  
   -0.14000     4.294e-11  
   -0.13000     5.773e-11  
   -0.12000     7.761e-11  
   -0.11000     1.043e-10  
   -0.10000     1.403e-10  
 -9.0000e-02    1.886e-10  
 -8.0000e-02    2.535e-10  
 -7.0000e-02    3.408e-10  
 -6.0000e-02    4.581e-10  
 -5.0000e-02    6.159e-10  
 -4.0000e-02    8.280e-10  
 -3.0000e-02    1.113e-09  
 -2.0000e-02    1.496e-09  
 -1.0000e-02    2.011e-09  
    0.          2.704e-09  
  1.0000e-02    3.634e-09  
  2.0000e-02    4.884e-09  
  3.0000e-02    6.564e-09  
  4.0000e-02    8.821e-09  
  5.0000e-02    1.185e-08  
  6.0000e-02    1.592e-08  
  7.0000e-02    2.138e-08  
  8.0000e-02    2.870e-08  
  9.0000e-02    3.851e-08  
    0.10000     5.164e-08  
    0.11000     6.918e-08  
    0.12000     9.257e-08  
    0.13000     1.237e-07  
    0.14000     1.649e-07  
    0.15000     2.194e-07  
    0.16000     2.908e-07  
    0.17000     3.839e-07  
    0.18000     5.042e-07  
    0.19000     6.578e-07  
    0.20000     8.518e-07  
    0.21000     1.093e-06  
    0.22000     1.389e-06  
    0.23000     1.745e-06  
    0.24000     2.167e-06  
    0.25000     2.658e-06  
    0.26000     3.220e-06  
    0.27000     3.854e-06  
    0.28000     4.558e-06  
    0.29000     5.329e-06  
    0.30000     6.165e-06  
    0.31000     7.060e-06  
    0.32000     8.012e-06  
    0.33000     9.015e-06  
    0.34000     1.006e-05  
    0.35000     1.115e-05  
    0.36000     1.228e-05  
    0.37000     1.345e-05  
    0.38000     1.464e-05  
    0.39000     1.585e-05  
    0.40000     1.710e-05  
    0.41000     1.836e-05  
    0.42000     1.963e-05  
    0.43000     2.093e-05  
    0.44000     2.223e-05  
    0.45000     2.355e-05  
    0.46000     2.488e-05  
    0.47000     2.621e-05  
    0.48000     2.755e-05  
    0.49000     2.889e-05  
    0.50000     3.023e-05  
    0.51000     3.158e-05  
    0.52000     3.293e-05  
    0.53000     3.428e-05  
    0.54000     3.563e-05  
    0.55000     3.698e-05  
    0.56000     3.832e-05  
    0.57000     3.966e-05  
    0.58000     4.100e-05  
    0.59000     4.233e-05  
    0.60000     4.366e-05  
    0.61000     4.499e-05  
    0.62000     4.631e-05  
    0.63000     4.762e-05  
    0.64000     4.893e-05  
    0.65000     5.023e-05  
    0.66000     5.152e-05  
    0.67000     5.281e-05  
    0.68000     5.409e-05  
    0.69000     5.537e-05  
    0.70000     5.663e-05  
    0.71000     5.789e-05  
    0.72000     5.914e-05  
    0.73000     6.039e-05  
    0.74000     6.162e-05  
    0.75000     6.285e-05  
    0.76000     6.407e-05  
    0.77000     6.528e-05  
    0.78000     6.648e-05  
    0.79000     6.767e-05  
    0.80000     6.886e-05  
    0.81000     7.004e-05  
    0.82000     7.121e-05  
    0.83000     7.237e-05  
    0.84000     7.352e-05  
    0.85000     7.466e-05  
    0.86000     7.580e-05  
    0.87000     7.692e-05  
    0.88000     7.804e-05  
    0.89000     7.915e-05  
    0.90000     8.025e-05  
    0.91000     8.134e-05  
    0.92000     8.242e-05  
    0.93000     8.350e-05  
    0.94000     8.457e-05  
    0.95000     8.563e-05  
    0.96000     8.668e-05  
    0.97000     8.772e-05  
    0.98000     8.875e-05  
    0.99000     8.978e-05  
    1.00000     9.079e-05  
y
-----------------------------------------------
 vth_lin=   0.1609
 vth_sat=   0.1232

   *** monte carlo  index =            2 ***

       MONTE CARLO PARAMETER DEFINITIONS

 tox_mc                          
     1:eot           =  7.8884E-10  2:eot           =  8.1249E-10

x

        volt    current    
                   x1.d    
   -0.50000       0.       
   -0.49000     7.105e-15  
   -0.48000       0.       
   -0.47000       0.       
   -0.46000     7.105e-15  
   -0.45000     7.105e-15  
   -0.44000       0.       
   -0.43000       0.       
   -0.42000     7.105e-15  
   -0.41000     1.421e-14  
   -0.40000     2.132e-14  
   -0.39000     2.842e-14  
   -0.38000     2.842e-14  
   -0.37000     3.553e-14  
   -0.36000     4.974e-14  
   -0.35000     7.105e-14  
   -0.34000     1.066e-13  
   -0.33000     1.350e-13  
   -0.32000     1.847e-13  
   -0.31000     2.558e-13  
   -0.30000     3.340e-13  
   -0.29000     4.690e-13  
   -0.28000     6.253e-13  
   -0.27000     8.384e-13  
   -0.26000     1.137e-12  
   -0.25000     1.528e-12  
   -0.24000     2.068e-12  
   -0.23000     2.785e-12  
   -0.22000     3.759e-12  
   -0.21000     5.066e-12  
   -0.20000     6.843e-12  
   -0.19000     9.223e-12  
   -0.18000     1.246e-11  
   -0.17000     1.682e-11  
   -0.16000     2.268e-11  
   -0.15000     3.060e-11  
   -0.14000     4.130e-11  
   -0.13000     5.571e-11  
   -0.12000     7.518e-11  
   -0.11000     1.014e-10  
   -0.10000     1.369e-10  
 -9.0000e-02    1.847e-10  
 -8.0000e-02    2.492e-10  
 -7.0000e-02    3.362e-10  
 -6.0000e-02    4.536e-10  
 -5.0000e-02    6.121e-10  
 -4.0000e-02    8.258e-10  
 -3.0000e-02    1.114e-09  
 -2.0000e-02    1.503e-09  
 -1.0000e-02    2.028e-09  
    0.          2.736e-09  
  1.0000e-02    3.691e-09  
  2.0000e-02    4.979e-09  
  3.0000e-02    6.716e-09  
  4.0000e-02    9.058e-09  
  5.0000e-02    1.221e-08  
  6.0000e-02    1.647e-08  
  7.0000e-02    2.219e-08  
  8.0000e-02    2.990e-08  
  9.0000e-02    4.027e-08  
    0.10000     5.419e-08  
    0.11000     7.285e-08  
    0.12000     9.783e-08  
    0.13000     1.312e-07  
    0.14000     1.755e-07  
    0.15000     2.341e-07  
    0.16000     3.113e-07  
    0.17000     4.121e-07  
    0.18000     5.424e-07  
    0.19000     7.092e-07  
    0.20000     9.199e-07  
    0.21000     1.182e-06  
    0.22000     1.503e-06  
    0.23000     1.889e-06  
    0.24000     2.346e-06  
    0.25000     2.876e-06  
    0.26000     3.482e-06  
    0.27000     4.163e-06  
    0.28000     4.918e-06  
    0.29000     5.744e-06  
    0.30000     6.638e-06  
    0.31000     7.593e-06  
    0.32000     8.607e-06  
    0.33000     9.673e-06  
    0.34000     1.079e-05  
    0.35000     1.194e-05  
    0.36000     1.314e-05  
    0.37000     1.437e-05  
    0.38000     1.563e-05  
    0.39000     1.692e-05  
    0.40000     1.823e-05  
    0.41000     1.955e-05  
    0.42000     2.090e-05  
    0.43000     2.226e-05  
    0.44000     2.363e-05  
    0.45000     2.502e-05  
    0.46000     2.641e-05  
    0.47000     2.781e-05  
    0.48000     2.921e-05  
    0.49000     3.062e-05  
    0.50000     3.203e-05  
    0.51000     3.344e-05  
    0.52000     3.485e-05  
    0.53000     3.626e-05  
    0.54000     3.767e-05  
    0.55000     3.908e-05  
    0.56000     4.048e-05  
    0.57000     4.188e-05  
    0.58000     4.328e-05  
    0.59000     4.467e-05  
    0.60000     4.605e-05  
    0.61000     4.743e-05  
    0.62000     4.880e-05  
    0.63000     5.017e-05  
    0.64000     5.153e-05  
    0.65000     5.288e-05  
    0.66000     5.422e-05  
    0.67000     5.556e-05  
    0.68000     5.689e-05  
    0.69000     5.821e-05  
    0.70000     5.952e-05  
    0.71000     6.082e-05  
    0.72000     6.212e-05  
    0.73000     6.340e-05  
    0.74000     6.468e-05  
    0.75000     6.595e-05  
    0.76000     6.721e-05  
    0.77000     6.846e-05  
    0.78000     6.970e-05  
    0.79000     7.093e-05  
    0.80000     7.215e-05  
    0.81000     7.336e-05  
    0.82000     7.456e-05  
    0.83000     7.576e-05  
    0.84000     7.694e-05  
    0.85000     7.812e-05  
    0.86000     7.928e-05  
    0.87000     8.044e-05  
    0.88000     8.159e-05  
    0.89000     8.273e-05  
    0.90000     8.386e-05  
    0.91000     8.498e-05  
    0.92000     8.609e-05  
    0.93000     8.719e-05  
    0.94000     8.828e-05  
    0.95000     8.936e-05  
    0.96000     9.044e-05  
    0.97000     9.150e-05  
    0.98000     9.256e-05  
    0.99000     9.361e-05  
    1.00000     9.465e-05  
y
-----------------------------------------------
 vth_lin=   0.1585
 vth_sat=   0.1238

   *** monte carlo  index =            3 ***

       MONTE CARLO PARAMETER DEFINITIONS

 tox_mc                          
     1:eot           =  7.1537E-10  2:eot           =  8.6307E-10

x

        volt    current    
                   x1.d    
   -0.50000       0.       
   -0.49000       0.       
   -0.48000       0.       
   -0.47000     7.105e-15  
   -0.46000     7.105e-15  
   -0.45000       0.       
   -0.44000       0.       
   -0.43000     7.105e-15  
   -0.42000     7.105e-15  
   -0.41000     7.105e-15  
   -0.40000     2.132e-14  
   -0.39000     2.132e-14  
   -0.38000     2.842e-14  
   -0.37000     3.553e-14  
   -0.36000     4.263e-14  
   -0.35000     5.684e-14  
   -0.34000     8.527e-14  
   -0.33000     1.279e-13  
   -0.32000     1.563e-13  
   -0.31000     2.203e-13  
   -0.30000     2.913e-13  
   -0.29000     4.050e-13  
   -0.28000     5.471e-13  
   -0.27000     7.390e-13  
   -0.26000     1.002e-12  
   -0.25000     1.364e-12  
   -0.24000     1.847e-12  
   -0.23000     2.515e-12  
   -0.22000     3.403e-12  
   -0.21000     4.626e-12  
   -0.20000     6.281e-12  
   -0.19000     8.512e-12  
   -0.18000     1.156e-11  
   -0.17000     1.568e-11  
   -0.16000     2.129e-11  
   -0.15000     2.888e-11  
   -0.14000     3.917e-11  
   -0.13000     5.315e-11  
   -0.12000     7.213e-11  
   -0.11000     9.786e-11  
   -0.10000     1.328e-10  
 -9.0000e-02    1.802e-10  
 -8.0000e-02    2.444e-10  
 -7.0000e-02    3.316e-10  
 -6.0000e-02    4.500e-10  
 -5.0000e-02    6.105e-10  
 -4.0000e-02    8.283e-10  
 -3.0000e-02    1.124e-09  
 -2.0000e-02    1.525e-09  
 -1.0000e-02    2.069e-09  
    0.          2.806e-09  
  1.0000e-02    3.807e-09  
  2.0000e-02    5.164e-09  
  3.0000e-02    7.004e-09  
  4.0000e-02    9.499e-09  
  5.0000e-02    1.288e-08  
  6.0000e-02    1.746e-08  
  7.0000e-02    2.367e-08  
  8.0000e-02    3.206e-08  
  9.0000e-02    4.341e-08  
    0.10000     5.874e-08  
    0.11000     7.940e-08  
    0.12000     1.072e-07  
    0.13000     1.444e-07  
    0.14000     1.942e-07  
    0.15000     2.604e-07  
    0.16000     3.477e-07  
    0.17000     4.621e-07  
    0.18000     6.105e-07  
    0.19000     8.006e-07  
    0.20000     1.041e-06  
    0.21000     1.340e-06  
    0.22000     1.705e-06  
    0.23000     2.143e-06  
    0.24000     2.660e-06  
    0.25000     3.259e-06  
    0.26000     3.941e-06  
    0.27000     4.706e-06  
    0.28000     5.550e-06  
    0.29000     6.471e-06  
    0.30000     7.464e-06  
    0.31000     8.524e-06  
    0.32000     9.645e-06  
    0.33000     1.082e-05  
    0.34000     1.205e-05  
    0.35000     1.332e-05  
    0.36000     1.463e-05  
    0.37000     1.598e-05  
    0.38000     1.735e-05  
    0.39000     1.876e-05  
    0.40000     2.019e-05  
    0.41000     2.163e-05  
    0.42000     2.310e-05  
    0.43000     2.457e-05  
    0.44000     2.606e-05  
    0.45000     2.756e-05  
    0.46000     2.907e-05  
    0.47000     3.058e-05  
    0.48000     3.209e-05  
    0.49000     3.361e-05  
    0.50000     3.513e-05  
    0.51000     3.665e-05  
    0.52000     3.817e-05  
    0.53000     3.968e-05  
    0.54000     4.119e-05  
    0.55000     4.270e-05  
    0.56000     4.421e-05  
    0.57000     4.570e-05  
    0.58000     4.719e-05  
    0.59000     4.868e-05  
    0.60000     5.016e-05  
    0.61000     5.163e-05  
    0.62000     5.309e-05  
    0.63000     5.454e-05  
    0.64000     5.599e-05  
    0.65000     5.742e-05  
    0.66000     5.885e-05  
    0.67000     6.027e-05  
    0.68000     6.167e-05  
    0.69000     6.307e-05  
    0.70000     6.446e-05  
    0.71000     6.583e-05  
    0.72000     6.720e-05  
    0.73000     6.856e-05  
    0.74000     6.990e-05  
    0.75000     7.124e-05  
    0.76000     7.256e-05  
    0.77000     7.387e-05  
    0.78000     7.518e-05  
    0.79000     7.647e-05  
    0.80000     7.775e-05  
    0.81000     7.902e-05  
    0.82000     8.028e-05  
    0.83000     8.153e-05  
    0.84000     8.276e-05  
    0.85000     8.399e-05  
    0.86000     8.521e-05  
    0.87000     8.641e-05  
    0.88000     8.761e-05  
    0.89000     8.879e-05  
    0.90000     8.996e-05  
    0.91000     9.113e-05  
    0.92000     9.228e-05  
    0.93000     9.342e-05  
    0.94000     9.456e-05  
    0.95000     9.568e-05  
    0.96000     9.679e-05  
    0.97000     9.789e-05  
    0.98000     9.898e-05  
    0.99000     1.001e-04  
    1.00000     1.011e-04  
y
-----------------------------------------------
 vth_lin=   0.1545
 vth_sat=   0.1240

   *** monte carlo  index =            4 ***

       MONTE CARLO PARAMETER DEFINITIONS

 tox_mc                          
     1:eot           =  7.0283E-10  2:eot           =  8.8920E-10

x

        volt    current    
                   x1.d    
   -0.50000       0.       
   -0.49000       0.       
   -0.48000     7.105e-15  
   -0.47000       0.       
   -0.46000     7.105e-15  
   -0.45000       0.       
   -0.44000       0.       
   -0.43000     7.105e-15  
   -0.42000     7.105e-15  
   -0.41000     7.105e-15  
   -0.40000     2.132e-14  
   -0.39000     2.132e-14  
   -0.38000     2.842e-14  
   -0.37000     3.553e-14  
   -0.36000     4.263e-14  
   -0.35000     5.684e-14  
   -0.34000     8.527e-14  
   -0.33000     1.137e-13  
   -0.32000     1.634e-13  
   -0.31000     2.203e-13  
   -0.30000     2.913e-13  
   -0.29000     3.979e-13  
   -0.28000     5.400e-13  
   -0.27000     7.319e-13  
   -0.26000     9.877e-13  
   -0.25000     1.336e-12  
   -0.24000     1.812e-12  
   -0.23000     2.473e-12  
   -0.22000     3.361e-12  
   -0.21000     4.555e-12  
   -0.20000     6.203e-12  
   -0.19000     8.413e-12  
   -0.18000     1.143e-11  
   -0.17000     1.552e-11  
   -0.16000     2.107e-11  
   -0.15000     2.861e-11  
   -0.14000     3.887e-11  
   -0.13000     5.278e-11  
   -0.12000     7.168e-11  
   -0.11000     9.735e-11  
   -0.10000     1.322e-10  
 -9.0000e-02    1.795e-10  
 -8.0000e-02    2.438e-10  
 -7.0000e-02    3.312e-10  
 -6.0000e-02    4.497e-10  
 -5.0000e-02    6.108e-10  
 -4.0000e-02    8.295e-10  
 -3.0000e-02    1.126e-09  
 -2.0000e-02    1.530e-09  
 -1.0000e-02    2.077e-09  
    0.          2.821e-09  
  1.0000e-02    3.830e-09  
  2.0000e-02    5.201e-09  
  3.0000e-02    7.061e-09  
  4.0000e-02    9.585e-09  
  5.0000e-02    1.301e-08  
  6.0000e-02    1.765e-08  
  7.0000e-02    2.395e-08  
  8.0000e-02    3.247e-08  
  9.0000e-02    4.401e-08  
    0.10000     5.960e-08  
    0.11000     8.063e-08  
    0.12000     1.089e-07  
    0.13000     1.470e-07  
    0.14000     1.978e-07  
    0.15000     2.653e-07  
    0.16000     3.546e-07  
    0.17000     4.716e-07  
    0.18000     6.234e-07  
    0.19000     8.179e-07  
    0.20000     1.064e-06  
    0.21000     1.369e-06  
    0.22000     1.743e-06  
    0.23000     2.191e-06  
    0.24000     2.720e-06  
    0.25000     3.331e-06  
    0.26000     4.028e-06  
    0.27000     4.808e-06  
    0.28000     5.669e-06  
    0.29000     6.607e-06  
    0.30000     7.619e-06  
    0.31000     8.698e-06  
    0.32000     9.839e-06  
    0.33000     1.104e-05  
    0.34000     1.228e-05  
    0.35000     1.358e-05  
    0.36000     1.491e-05  
    0.37000     1.628e-05  
    0.38000     1.768e-05  
    0.39000     1.910e-05  
    0.40000     2.055e-05  
    0.41000     2.202e-05  
    0.42000     2.351e-05  
    0.43000     2.500e-05  
    0.44000     2.652e-05  
    0.45000     2.804e-05  
    0.46000     2.956e-05  
    0.47000     3.109e-05  
    0.48000     3.263e-05  
    0.49000     3.417e-05  
    0.50000     3.571e-05  
    0.51000     3.725e-05  
    0.52000     3.878e-05  
    0.53000     4.032e-05  
    0.54000     4.185e-05  
    0.55000     4.338e-05  
    0.56000     4.490e-05  
    0.57000     4.641e-05  
    0.58000     4.792e-05  
    0.59000     4.942e-05  
    0.60000     5.092e-05  
    0.61000     5.240e-05  
    0.62000     5.388e-05  
    0.63000     5.535e-05  
    0.64000     5.681e-05  
    0.65000     5.826e-05  
    0.66000     5.970e-05  
    0.67000     6.114e-05  
    0.68000     6.256e-05  
    0.69000     6.397e-05  
    0.70000     6.537e-05  
    0.71000     6.676e-05  
    0.72000     6.814e-05  
    0.73000     6.951e-05  
    0.74000     7.086e-05  
    0.75000     7.221e-05  
    0.76000     7.355e-05  
    0.77000     7.487e-05  
    0.78000     7.618e-05  
    0.79000     7.749e-05  
    0.80000     7.878e-05  
    0.81000     8.006e-05  
    0.82000     8.133e-05  
    0.83000     8.258e-05  
    0.84000     8.383e-05  
    0.85000     8.507e-05  
    0.86000     8.629e-05  
    0.87000     8.751e-05  
    0.88000     8.871e-05  
    0.89000     8.990e-05  
    0.90000     9.108e-05  
    0.91000     9.225e-05  
    0.92000     9.341e-05  
    0.93000     9.456e-05  
    0.94000     9.570e-05  
    0.95000     9.683e-05  
    0.96000     9.795e-05  
    0.97000     9.906e-05  
    0.98000     1.002e-04  
    0.99000     1.012e-04  
    1.00000     1.023e-04  
y
-----------------------------------------------
 vth_lin=   0.1538
 vth_sat=   0.1240

   *** monte carlo  index =            5 ***

       MONTE CARLO PARAMETER DEFINITIONS

 tox_mc                          
     1:eot           =  8.8819E-10  2:eot           =  7.1562E-10

x

        volt    current    
                   x1.d    
   -0.50000       0.       
   -0.49000       0.       
   -0.48000     7.105e-15  
   -0.47000       0.       
   -0.46000     7.105e-15  
   -0.45000       0.       
   -0.44000     7.105e-15  
   -0.43000     7.105e-15  
   -0.42000     1.421e-14  
   -0.41000     1.421e-14  
   -0.40000     2.842e-14  
   -0.39000     2.842e-14  
   -0.38000     3.553e-14  
   -0.37000     4.974e-14  
   -0.36000     7.105e-14  
   -0.35000     9.948e-14  
   -0.34000     1.279e-13  
   -0.33000     1.705e-13  
   -0.32000     2.345e-13  
   -0.31000     3.197e-13  
   -0.30000     4.192e-13  
   -0.29000     5.684e-13  
   -0.28000     7.532e-13  
   -0.27000     1.009e-12  
   -0.26000     1.350e-12  
   -0.25000     1.805e-12  
   -0.24000     2.423e-12  
   -0.23000     3.254e-12  
   -0.22000     4.349e-12  
   -0.21000     5.819e-12  
   -0.20000     7.802e-12  
   -0.19000     1.044e-11  
   -0.18000     1.398e-11  
   -0.17000     1.872e-11  
   -0.16000     2.508e-11  
   -0.15000     3.358e-11  
   -0.14000     4.496e-11  
   -0.13000     6.021e-11  
   -0.12000     8.063e-11  
   -0.11000     1.080e-10  
   -0.10000     1.446e-10  
 -9.0000e-02    1.936e-10  
 -8.0000e-02    2.592e-10  
 -7.0000e-02    3.472e-10  
 -6.0000e-02    4.649e-10  
 -5.0000e-02    6.225e-10  
 -4.0000e-02    8.335e-10  
 -3.0000e-02    1.116e-09  
 -2.0000e-02    1.495e-09  
 -1.0000e-02    2.001e-09  
    0.          2.679e-09  
  1.0000e-02    3.587e-09  
  2.0000e-02    4.802e-09  
  3.0000e-02    6.429e-09  
  4.0000e-02    8.605e-09  
  5.0000e-02    1.152e-08  
  6.0000e-02    1.541e-08  
  7.0000e-02    2.061e-08  
  8.0000e-02    2.756e-08  
  9.0000e-02    3.684e-08  
    0.10000     4.921e-08  
    0.11000     6.568e-08  
    0.12000     8.756e-08  
    0.13000     1.166e-07  
    0.14000     1.549e-07  
    0.15000     2.053e-07  
    0.16000     2.713e-07  
    0.17000     3.570e-07  
    0.18000     4.676e-07  
    0.19000     6.087e-07  
    0.20000     7.866e-07  
    0.21000     1.008e-06  
    0.22000     1.280e-06  
    0.23000     1.607e-06  
    0.24000     1.995e-06  
    0.25000     2.448e-06  
    0.26000     2.968e-06  
    0.27000     3.555e-06  
    0.28000     4.208e-06  
    0.29000     4.926e-06  
    0.30000     5.705e-06  
    0.31000     6.542e-06  
    0.32000     7.432e-06  
    0.33000     8.372e-06  
    0.34000     9.358e-06  
    0.35000     1.038e-05  
    0.36000     1.145e-05  
    0.37000     1.254e-05  
    0.38000     1.367e-05  
    0.39000     1.482e-05  
    0.40000     1.599e-05  
    0.41000     1.718e-05  
    0.42000     1.840e-05  
    0.43000     1.962e-05  
    0.44000     2.086e-05  
    0.45000     2.211e-05  
    0.46000     2.337e-05  
    0.47000     2.464e-05  
    0.48000     2.591e-05  
    0.49000     2.719e-05  
    0.50000     2.847e-05  
    0.51000     2.976e-05  
    0.52000     3.104e-05  
    0.53000     3.233e-05  
    0.54000     3.362e-05  
    0.55000     3.491e-05  
    0.56000     3.619e-05  
    0.57000     3.748e-05  
    0.58000     3.876e-05  
    0.59000     4.004e-05  
    0.60000     4.131e-05  
    0.61000     4.258e-05  
    0.62000     4.385e-05  
    0.63000     4.511e-05  
    0.64000     4.636e-05  
    0.65000     4.762e-05  
    0.66000     4.886e-05  
    0.67000     5.010e-05  
    0.68000     5.133e-05  
    0.69000     5.256e-05  
    0.70000     5.378e-05  
    0.71000     5.499e-05  
    0.72000     5.620e-05  
    0.73000     5.740e-05  
    0.74000     5.859e-05  
    0.75000     5.978e-05  
    0.76000     6.096e-05  
    0.77000     6.213e-05  
    0.78000     6.329e-05  
    0.79000     6.445e-05  
    0.80000     6.559e-05  
    0.81000     6.673e-05  
    0.82000     6.787e-05  
    0.83000     6.899e-05  
    0.84000     7.011e-05  
    0.85000     7.122e-05  
    0.86000     7.232e-05  
    0.87000     7.342e-05  
    0.88000     7.450e-05  
    0.89000     7.558e-05  
    0.90000     7.665e-05  
    0.91000     7.772e-05  
    0.92000     7.877e-05  
    0.93000     7.982e-05  
    0.94000     8.086e-05  
    0.95000     8.189e-05  
    0.96000     8.292e-05  
    0.97000     8.393e-05  
    0.98000     8.494e-05  
    0.99000     8.594e-05  
    1.00000     8.694e-05  
y
-----------------------------------------------
 vth_lin=   0.1633
 vth_sat=   0.1232

   meas_variable = vth_lin
   mean  =   0.1583   varian = 1.678e-05
   sigma = 4.097e-03  avgdev = 4.060e-03
   max   =   0.1634   min    =   0.1539 
    1-sigma = 4.097e-03 median =   0.1545 

   meas_variable = vth_sat
   mean  =   0.1237   varian = 1.970e-07
   sigma = 4.438e-04  avgdev = 4.800e-04
   max   =   0.1241   min    =   0.1232 
    1-sigma = 4.438e-04 median =   0.1232 

          ***** job concluded
1****** HSPICE -- G-2012.06 32-BIT (May 27 2012) RHEL32 ******                  
 ******  
 *sample netlist for bsim-mg

  ******  job statistics summary tnom=  25.000 temp=  27.000 *****
  
  
 ******  Machine Information  ******
 CPU:
 model name	: Intel(R) Xeon(R) CPU E5-2643 0 @ 3.30GHz
 cpu MHz	: 3299.839
  
 OS:
 Linux version 2.6.32-358.18.1.el6.x86_64 (mockbuild@x86-003.build.bos.redhat.com) (gcc version 4.4.7 20120313 (Red Hat 4.4.7-3) (GCC) ) #1 SMP Fri Aug 2 17:04:38 EDT 2013


  ******  HSPICE Threads Information  ******

  Command Line Threads Count :     1
  Available CPU Count        :     8
  Actual Threads Count       :     1


  ******  Circuit Statistics  ******
  # nodes       =      17 # elements   =       8
  # resistors   =       0 # capacitors =       0 # inductors   =       0
  # mutual_inds =       0 # vccs       =       0 # vcvs        =       0
  # cccs        =       0 # ccvs       =       0 # volt_srcs   =       6
  # curr_srcs   =       0 # diodes     =       0 # bjts        =       0
  # jfets       =       0 # mosfets    =       0 # U elements  =       0
  # T elements  =       0 # W elements =       0 # B elements  =       0
  # S elements  =       0 # P elements =       0 # va device   =       2
  # vector_srcs =       0 # N elements =       0


  ******  Runtime Statistics (seconds)  ******

  analysis           time    # points   tot. iter  conv.iter
  op point           0.00           1           0
  dc sweep           0.17         755        1516
  readin             0.05
  errchk             0.05
  setup              0.00
  output             0.00


           peak memory used        112.86 megabytes
           total cpu time            0.28 seconds
           total elapsed time        0.87 seconds
           job started at     13:21:43 11/24/2014
           job ended   at     13:21:43 11/24/2014


 lic: Release hspice token(s) 
 lic: total license checkout elapse time:        0.25(s)


pVA concluded on Mon Nov 24 13:21:43 2014

