$DATA1 SOURCE='HSPICE' VERSION='G-2012.06 32-BIT'
.TITLE '*sample netlist for bsim-mg'
 index            1:eot@tox_mc     2:eot@tox_mc     vth_lin           
                  vth_sat          temper           alter#            
 1                 8.367e-10        7.153e-10          0.1610         
                     0.1232          27.0000        1                 
 2                 7.888e-10        8.125e-10          0.1585         
                     0.1239          27.0000        1                 
 3                 7.154e-10        8.631e-10          0.1545         
                     0.1240          27.0000        1                 
 4                 7.028e-10        8.892e-10          0.1539         
                     0.1241          27.0000        1                 
 5                 8.882e-10        7.156e-10          0.1634         
                     0.1232          27.0000        1                 
 6                 9.022e-10        8.198e-10          0.1640         
                     0.1239          27.0000        1                 
 7                 8.486e-10        8.832e-10          0.1615         
                     0.1241          27.0000        1                 
 8                 8.132e-10        8.124e-10          0.1599         
                     0.1239          27.0000        1                 
 9                 7.255e-10        8.512e-10          0.1551         
                     0.1240          27.0000        1                 
 10                8.236e-10        8.377e-10          0.1604         
                     0.1240          27.0000        1                 
 11                7.729e-10        6.101e-10          0.1576         
                     0.1220          27.0000        1                 
 12                7.978e-10        9.014e-10          0.1590         
                     0.1241          27.0000        1                 
 13                8.436e-10        7.099e-10          0.1613         
                     0.1232          27.0000        1                 
 14                7.705e-10        7.402e-10          0.1575         
                     0.1234          27.0000        1                 
 15                9.101e-10        8.197e-10          0.1644         
                     0.1239          27.0000        1                 
 16                6.443e-10        7.143e-10          0.1509         
                     0.1232          27.0000        1                 
 17                8.038e-10        8.394e-10          0.1594         
                     0.1240          27.0000        1                 
 18                7.803e-10        8.220e-10          0.1581         
                     0.1239          27.0000        1                 
 19                8.645e-10        7.803e-10          0.1623         
                     0.1237          27.0000        1                 
 20                6.242e-10        7.816e-10          0.1500         
                     0.1237          27.0000        1                 
 21                9.637e-10        7.865e-10          0.1670         
                     0.1238          27.0000        1                 
 22                7.786e-10        8.858e-10          0.1580         
                     0.1241          27.0000        1                 
 23                7.736e-10        7.309e-10          0.1577         
                     0.1234          27.0000        1                 
 24                7.135e-10        6.977e-10          0.1544         
                     0.1230          27.0000        1                 
 25                7.820e-10        9.477e-10          0.1582         
                     0.1240          27.0000        1                 
 26                7.672e-10        7.372e-10          0.1573         
                     0.1234          27.0000        1                 
 27                7.311e-10        8.404e-10          0.1554         
                     0.1240          27.0000        1                 
 28                7.838e-10        7.500e-10          0.1583         
                     0.1235          27.0000        1                 
 29                7.412e-10        8.319e-10          0.1559         
                     0.1240          27.0000        1                 
 30                9.267e-10        7.905e-10          0.1652         
                     0.1238          27.0000        1                 
 31                9.303e-10        7.846e-10          0.1654         
                     0.1237          27.0000        1                 
 32                7.265e-10        8.018e-10          0.1551         
                     0.1238          27.0000        1                 
 33                9.245e-10        7.028e-10          0.1651         
                     0.1231          27.0000        1                 
 34                6.132e-10        6.973e-10          0.1493         
                     0.1230          27.0000        1                 
 35                8.883e-10        6.533e-10          0.1634         
                     0.1225          27.0000        1                 
 36                7.113e-10        9.222e-10          0.1543         
                     0.1240          27.0000        1                 
 37                8.509e-10        7.522e-10          0.1616         
                     0.1235          27.0000        1                 
 38                9.626e-10        8.040e-10          0.1669         
                     0.1239          27.0000        1                 
 39                8.568e-10        8.105e-10          0.1619         
                     0.1239          27.0000        1                 
 40                7.657e-10        7.830e-10          0.1572         
                     0.1237          27.0000        1                 
 41                7.351e-10        8.867e-10          0.1556         
                     0.1241          27.0000        1                 
 42                7.928e-10        8.959e-10          0.1588         
                     0.1241          27.0000        1                 
 43                7.683e-10        8.594e-10          0.1574         
                     0.1240          27.0000        1                 
 44                8.769e-10        8.846e-10          0.1628         
                     0.1241          27.0000        1                 
 45                8.155e-10        7.852e-10          0.1600         
                     0.1238          27.0000        1                 
 46                7.698e-10        6.709e-10          0.1575         
                     0.1228          27.0000        1                 
 47                8.487e-10        8.244e-10          0.1615         
                     0.1239          27.0000        1                 
 48                7.517e-10        9.726e-10          0.1565         
                     0.1239          27.0000        1                 
 49                7.023e-10        7.850e-10          0.1539         
                     0.1237          27.0000        1                 
 50                8.068e-10        7.877e-10          0.1596         
                     0.1238          27.0000        1                 
